Examples/InverterModels/PVSystem2/InvControl2/VV_VW/SnapShot_VVVW_VWnooperation_Power_elem_kVA.txt

CIRCUIT ELEMENT POWER FLOW

(Power Flow into element from indicated Bus)

Power Delivery Elements

  Bus Phase     kW     +j   kvar         kVA         PF

ELEMENT = "Vsource.SOURCE"
A        1       333.3 +j   -137.3      360.5      -0.9247
A        2       333.3 +j   -137.3      360.5      -0.9247
A        3       333.3 +j   -137.3      360.5      -0.9247
   TERMINAL TOTAL  1000.0 +j   -411.8     1081.5      -0.9247
A        0         0.0 +j      0.0        0.0       1.0000
A        0         0.0 +j      0.0        0.0       1.0000
A        0         0.0 +j      0.0        0.0       1.0000
   TERMINAL TOTAL     0.0 +j      0.0        0.0       1.0000

= = = = = = = = = = = = = = = = = = =  = = = = = = = = = = =  = =

Power Conversion Elements

  Bus Phase     kW   +j  kvar         kVA         PF

ELEMENT = "PVSystem.PV"
A        1    -333.3 +j  137.3      360.5      -0.9247
A        2    -333.3 +j  137.3      360.5      -0.9247
A        3    -333.3 +j  137.3      360.5      -0.9247
A        0       0.0 +j    0.0        0.0       1.0000
  TERMINAL TOTAL  -1000.0 +j    411.8     1081.5      -0.9247


Total Circuit Losses =    0.0 +j    0.0
